<?xml version="1.0" encoding="ISO-8859-1"?>
<febio_spec version="4.0">
	<Module type="solid"/>
	<Control>
		<analysis>STATIC</analysis>
		<time_steps>10</time_steps>
		<step_size>0.1</step_size>
		<plot_zero_state>0</plot_zero_state>
		<plot_range>0,-1</plot_range>
		<plot_level>PLOT_FINAL</plot_level>
		<output_level>OUTPUT_FINAL</output_level>
		<plot_stride>1</plot_stride>
		<output_stride>1</output_stride>
		<adaptor_re_solve>1</adaptor_re_solve>
		<time_stepper type="default">
			<max_retries>5</max_retries>
			<opt_iter>11</opt_iter>
			<dtmin>0</dtmin>
			<dtmax>0.1</dtmax>
			<aggressiveness>0</aggressiveness>
			<cutback>0.5</cutback>
			<dtforce>0</dtforce>
		</time_stepper>
		<solver type="solid">
			<symmetric_stiffness>preferred</symmetric_stiffness>
			<equation_scheme>staggered</equation_scheme>
			<equation_order>default</equation_order>
			<optimize_bw>0</optimize_bw>
			<lstol>0.9</lstol>
			<lsmin>0.01</lsmin>
			<lsiter>5</lsiter>
			<ls_check_jacobians>0</ls_check_jacobians>
			<max_refs>15</max_refs>
			<check_zero_diagonal>0</check_zero_diagonal>
			<zero_diagonal_tol>0</zero_diagonal_tol>
			<force_partition>0</force_partition>
			<reform_each_time_step>1</reform_each_time_step>
			<reform_augment>0</reform_augment>
			<diverge_reform>1</diverge_reform>
			<min_residual>1e-20</min_residual>
			<max_residual>0</max_residual>
			<dtol>0.001</dtol>
			<etol>0.01</etol>
			<rtol>0</rtol>
			<rhoi>-2</rhoi>
			<alpha>1</alpha>
			<beta>0.25</beta>
			<gamma>0.5</gamma>
			<logSolve>0</logSolve>
			<arc_length>0</arc_length>
			<arc_length_scale>0</arc_length_scale>
			<qn_method type="BFGS">
				<max_ups>10</max_ups>
				<max_buffer_size>0</max_buffer_size>
				<cycle_buffer>1</cycle_buffer>
				<cmax>100000</cmax>
			</qn_method>
		</solver>
	</Control>
	<Globals>
		<Constants>
			<T>0</T>
			<P>0</P>
			<R>8.31446</R>
			<Fc>96485.3</Fc>
		</Constants>
	</Globals>
	<Material>

	</Material>
	<Mesh>
		<Nodes name="cube">
			<node id="1">0,0,0</node>
			<node id="2">1,0,0</node>
			<node id="3">1,1,0</node>
			<node id="4">0,1,0</node>
			<node id="5">0,0,1</node>
			<node id="6">1,0,1</node>
			<node id="7">1,1,1</node>
			<node id="8">0,1,1</node>
			<node id="9">0.1,0,0</node>
			<node id="10">0.2,0,0</node>
			<node id="11">0.3,0,0</node>
			<node id="12">0.4,0,0</node>
			<node id="13">0.5,0,0</node>
			<node id="14">0.6,0,0</node>
			<node id="15">0.7,0,0</node>
			<node id="16">0.8,0,0</node>
			<node id="17">0.9,0,0</node>
			<node id="18">1,0,0.1</node>
			<node id="19">1,0,0.2</node>
			<node id="20">1,0,0.3</node>
<!-- ... 1311 like lines cut -->
		</Nodes>
		
		<Surface name="ZeroDisplacement1">
			<quad4 id="1">107,513,9,1</quad4>
			<quad4 id="2">513,514,10,9</quad4>
			<quad4 id="3">514,515,11,10</quad4>
			<quad4 id="4">515,516,12,11</quad4>
			<quad4 id="5">516,517,13,12</quad4>
			<quad4 id="6">517,518,14,13</quad4>
			<quad4 id="7">518,519,15,14</quad4>
			<quad4 id="8">519,520,16,15</quad4>
			<quad4 id="9">520,521,17,16</quad4>
			<quad4 id="10">521,45,2,17</quad4>
			<quad4 id="11">106,504,513,107</quad4>
			<quad4 id="12">504,505,514,513</quad4>
			<quad4 id="13">505,506,515,514</quad4>
			<quad4 id="14">506,507,516,515</quad4>
			<quad4 id="15">507,508,517,516</quad4>
			<quad4 id="16">508,509,518,517</quad4>
			<quad4 id="17">509,510,519,518</quad4>
			<quad4 id="18">510,511,520,519</quad4>
			<quad4 id="19">511,512,521,520</quad4>
			<quad4 id="20">512,46,45,521</quad4>
<!-- ... 80 like lines cut -->
		</Surface>
		<Surface name="PrescribedDisplacement2">
			<quad4 id="1">542,543,552,551</quad4>
			<quad4 id="2">543,544,553,552</quad4>
			<quad4 id="3">544,545,554,553</quad4>
			<quad4 id="4">545,546,555,554</quad4>
			<quad4 id="5">551,552,561,560</quad4>
			<quad4 id="6">552,553,562,561</quad4>
			<quad4 id="7">553,554,563,562</quad4>
			<quad4 id="8">554,555,564,563</quad4>
			<quad4 id="9">560,561,570,569</quad4>
			<quad4 id="10">561,562,571,570</quad4>
			<quad4 id="11">562,563,572,571</quad4>
			<quad4 id="12">563,564,573,572</quad4>
			<quad4 id="13">569,570,579,578</quad4>
			<quad4 id="14">570,571,580,579</quad4>
			<quad4 id="15">571,572,581,580</quad4>
			<quad4 id="16">572,573,582,581</quad4>
		</Surface>
	</Mesh>
	<MeshDomains>

	</MeshDomains>
	<Boundary>
		<bc name="ZeroDisplacement1" node_set="@surface:ZeroDisplacement1" type="zero displacement">
			<x_dof>1</x_dof>
			<y_dof>1</y_dof>
			<z_dof>1</z_dof>
		</bc>
		<bc name="PrescribedDisplacement2" node_set="@surface:PrescribedDisplacement2" type="prescribed displacement">
			<dof>z</dof>
			<value lc="1">-0.1</value>
			<relative>0</relative>
		</bc>
	</Boundary>
	<LoadData>
		<load_controller id="1" name="LC1" type="loadcurve">
			<interpolate>LINEAR</interpolate>
			<extend>CONSTANT</extend>
			<points>
				<pt>0,0</pt>
				<pt>1,1</pt>
			</points>
		</load_controller>
	</LoadData>
	<Output>
		<plotfile type="febio">
			<var type="displacement"/>
			<var type="stress"/>
			<var type="relative volume"/>
			<var type="nodal strain"/>
		</plotfile>
	</Output>
</febio_spec>
